27
-1 1
C         53.2701612485       24.9661925487      -34.8677863465
C         52.4903161376       23.7801331336      -34.3901053378
N         52.4428961489       23.3713096575      -33.1492684895
N         51.7355738695       22.9963099812      -35.2457817327
C         51.1285201355       21.9653385196      -34.4908172473
O         50.3870856319       21.0971124892      -34.9765424673
C         51.6087426826       22.2426293213      -33.1486066855
C         51.5466611179       23.1414552102      -36.6889910277
C         51.2523139255       21.4596340644      -32.0647362253
C         51.5895714105       21.5364275612      -30.6983098236
C         51.0549872354       20.5645372220      -29.8036114614
C         52.4425906613       22.5326967098      -30.1312586562
C         51.3343821921       20.5687434437      -28.4608439899
C         52.7279831682       22.5468762345      -28.7911975204
C         52.1955176790       21.5673051599      -27.8582086293
O         52.4628545867       21.5870775057      -26.6270475732
H         50.9149455899       19.8194651788      -27.8036118487
H         52.8613795851       23.2824532469      -30.7895716924
H         53.3758494633       23.3078961798      -28.3760041358
H         50.4038721960       19.7972916534      -30.2127581939
H         50.5916335660       20.6443135247      -32.3482103134
H         50.8905368976       22.3388236197      -36.9874984547
H         52.4823705073       23.0549921569      -37.2215812419
H         51.0883885087       24.0880596243      -36.9351205544
H         54.0170241841       24.6877171026      -35.6042243867
H         53.7673461927       25.4021592612      -34.0125701737
H         52.6284954780       25.7150496891      -35.3207357909
